
Circuit: *

Doing analysis at TEMP = 27.000000 and TNOM = 27.000000


No. of Data Rows : 1
********************************************
Operating point
********************************************
op_TAB
@gb[i] = -2.32745e-04
@id[current] = 1.004395e-03
@r1[i] = 2.219473e-04
@r2[i] = 2.327451e-04
@r3[i] = -1.07978e-05
@r4[i] = -1.19077e-03
@r5[i] = -1.23714e-03
@r6[i] = 9.688185e-04
@r7[i] = 9.688185e-04
v(1) = 5.179800e+00
v(2) = 4.949130e+00
v(3) = 4.481100e+00
v(4) = 4.981968e+00
v(5) = 8.811951e+00
v(6) = -1.95815e+00
v(7) = -2.94854e+00
v(8) = -1.95815e+00
hc#branch = 3.557695e-05
va#branch = -2.21947e-04
vi#branch = 9.688185e-04
op_END
ngspice-31 done
